data_image0
_cell_length_a       61.5473
_cell_length_b       4.12
_cell_length_c       13.4316
_cell_angle_alpha    90
_cell_angle_beta     90
_cell_angle_gamma    120

_symmetry_space_group_name_H-M    "P 1"
_symmetry_int_tables_number       1

loop_
  _symmetry_equiv_pos_as_xyz
  'x, y, z'

loop_
  _atom_site_label
  _atom_site_occupancy
  _atom_site_fract_x
  _atom_site_fract_y
  _atom_site_fract_z
  _atom_site_thermal_displace_type
  _atom_site_B_iso_or_equiv
  _atom_site_type_symbol
  Sb1      1.0000 0.20993  0.33333  0.05920  Biso   1.000  Sb
  As1      1.0000 0.18761  0.66667  0.94080  Biso   1.000  As
  Sb2      1.0000 0.27687  0.33333  0.05920  Biso   1.000  Sb
  As2      1.0000 0.25455  0.66667  0.94080  Biso   1.000  As
  Sb3      1.0000 0.34381  0.33333  0.05920  Biso   1.000  Sb
  As3      1.0000 0.32149  0.66667  0.94080  Biso   1.000  As
  Sb4      1.0000 0.41075  0.33333  0.05920  Biso   1.000  Sb
  As4      1.0000 0.38843  0.66667  0.94080  Biso   1.000  As
  Sb5      1.0000 0.47769  0.33333  0.05920  Biso   1.000  Sb
  As5      1.0000 0.45537  0.66667  0.94080  Biso   1.000  As
  Sb6      1.0000 0.54463  0.33333  0.05920  Biso   1.000  Sb
  As6      1.0000 0.52231  0.66667  0.94080  Biso   1.000  As
  Sb7      1.0000 0.61157  0.33333  0.05920  Biso   1.000  Sb
  As7      1.0000 0.58925  0.66667  0.94080  Biso   1.000  As
  Sb8      1.0000 0.67851  0.33333  0.05920  Biso   1.000  Sb
  As8      1.0000 0.65619  0.66667  0.94080  Biso   1.000  As
  Sb9      1.0000 0.74545  0.33333  0.05920  Biso   1.000  Sb
  As9      1.0000 0.72313  0.66667  0.94080  Biso   1.000  As
  Sb10     1.0000 0.81239  0.33333  0.05920  Biso   1.000  Sb
  As10     1.0000 0.79007  0.66667  0.94080  Biso   1.000  As
